&HEAD CHID='Euler30RHOBburnerSlab', TITLE='Example WFDS case with a rectangular volume of Fuel Element vegetation over a burner' /


4grids, 5cm resolution
&MESH IJK=20,20,40, XB=-1,0,-1,0,0,2 /
&MESH IJK=20,20,40, XB= 0,1,-1,0,0,2 /
&MESH IJK=20,20,40, XB=-1,0, 0,1,0,2 /
&MESH IJK=20,20,40, XB= 0,1, 0,1,0,2 /

&REAC ID='WOOD'
      FUEL='WOOD PYRO'
      FYI='Ritchie, et al., 5th IAFSS, C_3.4 H_6.2 O_2.5, dHc = 15MW/kg'
      SOOT_YIELD = 0.02
      O          = 2.5
      C          = 3.4
      H          = 6.2
      HEAT_OF_COMBUSTION = 17700. /

&TIME T_END= 30 / 

- Horizontal ring IGNITOR
cPART ID='IGNITOR ELEMENTS',TREE=.TRUE.,QUANTITIES='VEG_TEMPERATURE',
      VEG_INITIAL_TEMPERATURE=1000.,
      VEG_SV=1500.
      VEG_DRAG_COEFFICIENT=0.0,VEG_DENSITY=1.,VEG_BULK_DENSITY=1.0 /
cTREE PART_ID='IGNITOR ELEMENTS',FUEL_GEOM='RING',IGNITOR_ELEMENTS=.TRUE.,
      XYZ=0,0,0,CROWN_WIDTH=1.0,CROWN_BASE_HEIGHT=0.35,TREE_HEIGHT=0.45,
      RING_THICKNESS=0.05,
      TON_IGNITOR_ELEMENTS=0.0,T_RAMPON_IGNITOR_ELEMENTS=1.0,
      TOFF_IGNITOR_ELEMENTS=30.,T_RAMPOFF_IGNITOR_ELEMENTS=0.3 /

- Hot plate on bottom of domain
cSURF ID='hot plate',TMP_FRONT=1000,COLOR='RED' /
cVENT XB=-0.5,0.5,-0.5,0.5,0,0, SURF_ID='hot plate' /

- Burner on bottom of domain
&SURF ID='burner',HRRPUA=500,COLOR='RED' /
&VENT XB=-0.5,0.5,-0.5,0.5,0,0, SURF_ID='burner' /

-vegetation
-- used in Catchpole sims
&PART ID='needles',TREE=.TRUE.,
      QUANTITIES='VEG_TEMPERATURE',
      VEG_INITIAL_TEMPERATURE=27,
      VEG_SV=5710.,
      VEG_MOISTURE=0.09,
      VEG_CHAR_FRACTION=0.265,
      VEG_ASH_FRACTION=0.0375,
      VEG_DRAG_COEFFICIENT=0.125,
      VEG_DENSITY=510.,
      VEG_BULK_DENSITY=32.13,
      VEG_BURNING_RATE_MAX=9999,
      VEG_DEHYDRATION_RATE_MAX=9999,
      VEG_CHAROX_RATE_MAX=1,
      VEG_DEGRADATION = 'ARRHENIUS',
      VEG_CHAR_OXIDATION = .TRUE.,
      VEG_REMOVE_CHARRED=.TRUE.
      VEG_CHAR_ENTHALPY_FRACTION = 0.5
      VEG_H_H2O = 2259
      VEG_A_H2O = 600000
      VEG_E_H2O = 5800 
      VEG_H_PYR = 609.
      VEG_A_PYR = 36300
      VEG_E_PYR = 7250
      VEG_H_CHAR = -31940.
      VEG_A_CHAR = 430
      VEG_E_CHAR = 9000
      VEG_BETA_CHAR = 0.2
      VEG_NU_O2_CHAR = 1.65
      VEG_NDT_SUBCYCLES = 1
      RGB = 122,117,48  /

!Slab of veg
&TREE PART_ID='needles'
      XB=-0.5,0.5,-0.5,0.5,0.25,0.30,
      FUEL_GEOM='RECTANGLE'/
    
!Veg points for output
&TREE PART_ID='needles',
      XB=0.0,0.05,0.0,0.05,0.25,0.30,FUEL_GEOM='RECTANGLE',
      OUTPUT_TREE=.TRUE.,LABEL='vegpt', /

&SPEC ID='WATER VAPOR' /
&SPEC ID='OXYGEN' /
&SPEC ID='CARBON DIOXIDE' /

&VENT MB = XMIN, SURF_ID = 'OPEN' /
&VENT MB = XMAX, SURF_ID = 'OPEN' /
&VENT MB = YMIN, SURF_ID = 'OPEN' /
&VENT MB = YMAX, SURF_ID = 'OPEN' /
&VENT MB = ZMAX, SURF_ID = 'OPEN' /

&DUMP DT_SLCF=0.1,DT_ISOF=0.1,DT_PART=0.1 /
&SLCF PBY=0.0,QUANTITY='TEMPERATURE',VECTOR=.TRUE. /
&SLCF PBZ=1.0,QUANTITY='TEMPERATURE',VECTOR=.TRUE. /
&SLCF PBY=0.0,QUANTITY='ABSORPTION COEFFICIENT',VECTOR=.TRUE. /
&SLCF PBY=0.0,QUANTITY='HRRPUV' /
&SLCF PBY=0.0,QUANTITY='MASS FRACTION',SPEC_ID='WOOD PYRO' /
&SLCF PBY=0.0,QUANTITY='MASS FRACTION',SPEC_ID='OXYGEN' /
&SLCF PBY=0.0,QUANTITY='MASS FRACTION',SPEC_ID='CARBON DIOXIDE' /
&SLCF PBY=0.0,QUANTITY='MASS FRACTION',SPEC_ID='WATER VAPOR' /

&ISOF QUANTITY='TEMPERATURE',VALUE(1)=100. /

-Point measurements
&DEVC XYZ=0,0,0.5,QUANTITY='TEMPERATURE',ID='T center' /
&DEVC XYZ=0.5,0.5,0.5,QUANTITY='TEMPERATURE',ID='T above ring' /

&TAIL /
