Example of a simulation with a forest (~5000 trees). From Chad Hoffman of Colorado State University.
Both the Fuel Element (FE, for raised vegetation) and Boundary Fuel (BF, for ground vegetation) 
vegetation models are used.
The input file is based on field collected data. It is based on 29 processor run with a 200 x 200 m area 
of interest for which we estimate fire behavior. The upwind area is included to deal with fetch issues, 
a downwind area is included for the boundary conditions, and we try to keep the area of interest away from 
the sides of the domain. Depending on tree size you may have to adjust all of these to ensure you avoid 
fetch and edge issues. The output data is sued with some matlab scripts we have developed to estimate 
rate of spread, fireline intensity, and the flow field. We also use OUTPUT_TREE=.True. with a unique 
id for all tree to estimate the amount of canopy consumed. 

--- some parameter names are out of date

&HEAD CHID='Zuni_Post_9ms'
      TITLE='Zuni_Post_9ms' /

&MESH ID='MESH1', IJK=310,25,100, XB=0,620,0,50,0,100 /
&MESH ID='MESH2', IJK=310,25,100, XB=0,620,50,100,0,100 /
&MESH ID='MESH3', IJK=310,25,100, XB=0,620,100,150,0,100 /
&MESH ID='MESH4', IJK=310,25,100, XB=0,620,150,200,0,100 /
&MESH ID='MESH5', IJK=310,25,100, XB=0,620,200,250,0,100 /
&MESH ID='MESH6', IJK=310,25,100, XB=0,620,250,300,0,100 /
&MESH ID='MESH7', IJK=310,25,100, XB=0,620,300,350,0,100 /
&MESH ID='MESH8', IJK=310,25,100, XB=0,620,350,400,0,100 /
&MESH ID='MESH9', IJK=300,20,100, XB=620,920,0,20,0,100 /
&MESH ID='MESH10', IJK=300,20,100, XB=620,920,20,40,0,100 /
&MESH ID='MESH11', IJK=300,20,100, XB=620,920,40,60,0,100 /
&MESH ID='MESH12', IJK=300,20,100, XB=620,920,60,80,0,100 /
&MESH ID='MESH13', IJK=300,20,100, XB=620,920,80,100,0,100 /
&MESH ID='MESH14', IJK=300,20,100, XB=620,920,100,120,0,100 /
&MESH ID='MESH15', IJK=300,20,100, XB=620,920,120,140,0,100 /
&MESH ID='MESH16', IJK=300,20,100, XB=620,920,140,160,0,100 /
&MESH ID='MESH17', IJK=300,20,100, XB=620,920,160,180,0,100 /
&MESH ID='MESH18', IJK=300,20,100, XB=620,920,180,200,0,100 /
&MESH ID='MESH19', IJK=300,20,100, XB=620,920,200,220,0,100 /
&MESH ID='MESH20', IJK=300,20,100, XB=620,920,220,240,0,100 /
&MESH ID='MESH21', IJK=300,20,100, XB=620,920,240,260,0,100 /
&MESH ID='MESH22', IJK=300,20,100, XB=620,920,260,280,0,100 /
&MESH ID='MESH23', IJK=300,20,100, XB=620,920,280,300,0,100 /
&MESH ID='MESH24', IJK=300,20,100, XB=620,920,300,320,0,100 /
&MESH ID='MESH25', IJK=300,20,100, XB=620,920,320,340,0,100 /
&MESH ID='MESH26', IJK=300,20,100, XB=620,920,340,360,0,100 /
&MESH ID='MESH27', IJK=300,20,100, XB=620,920,360,380,0,100 /
&MESH ID='MESH28', IJK=300,20,100, XB=620,920,380,400,0,100 /
&MESH ID='MESH29', IJK=40,200,100, XB=920,1000,0,400,0,100 /

&TRNZ IDERIV=1,CC=0.,PC=0.5,MESH_NUMBER=1 /
&TRNZ IDERIV=1,CC=0.,PC=0.5,MESH_NUMBER=2 /
&TRNZ IDERIV=1,CC=0.,PC=0.5,MESH_NUMBER=3 /
&TRNZ IDERIV=1,CC=0.,PC=0.5,MESH_NUMBER=4 /
&TRNZ IDERIV=1,CC=0.,PC=0.5,MESH_NUMBER=5 /
&TRNZ IDERIV=1,CC=0.,PC=0.5,MESH_NUMBER=6 /
&TRNZ IDERIV=1,CC=0.,PC=0.5,MESH_NUMBER=7 /
&TRNZ IDERIV=1,CC=0.,PC=0.5,MESH_NUMBER=8 /
&TRNZ IDERIV=1,CC=0.,PC=0.5,MESH_NUMBER=9 /
&TRNZ IDERIV=1,CC=0.,PC=0.5,MESH_NUMBER=10 /
&TRNZ IDERIV=1,CC=0.,PC=0.5,MESH_NUMBER=11 /
&TRNZ IDERIV=1,CC=0.,PC=0.5,MESH_NUMBER=12 /
&TRNZ IDERIV=1,CC=0.,PC=0.5,MESH_NUMBER=13 /
&TRNZ IDERIV=1,CC=0.,PC=0.5,MESH_NUMBER=14 /
&TRNZ IDERIV=1,CC=0.,PC=0.5,MESH_NUMBER=15 /
&TRNZ IDERIV=1,CC=0.,PC=0.5,MESH_NUMBER=16 /
&TRNZ IDERIV=1,CC=0.,PC=0.5,MESH_NUMBER=17 /
&TRNZ IDERIV=1,CC=0.,PC=0.5,MESH_NUMBER=18 /
&TRNZ IDERIV=1,CC=0.,PC=0.5,MESH_NUMBER=19 /
&TRNZ IDERIV=1,CC=0.,PC=0.5,MESH_NUMBER=20 /
&TRNZ IDERIV=1,CC=0.,PC=0.5,MESH_NUMBER=21 /
&TRNZ IDERIV=1,CC=0.,PC=0.5,MESH_NUMBER=22 /
&TRNZ IDERIV=1,CC=0.,PC=0.5,MESH_NUMBER=23 /
&TRNZ IDERIV=1,CC=0.,PC=0.5,MESH_NUMBER=24 /
&TRNZ IDERIV=1,CC=0.,PC=0.5,MESH_NUMBER=25 /
&TRNZ IDERIV=1,CC=0.,PC=0.5,MESH_NUMBER=26 /
&TRNZ IDERIV=1,CC=0.,PC=0.5,MESH_NUMBER=27 /
&TRNZ IDERIV=1,CC=0.,PC=0.5,MESH_NUMBER=28 /
&TRNZ IDERIV=1,CC=0.,PC=0.5,MESH_NUMBER=29 /

&TRNZ IDERIV=2,CC=0.,PC=0.0,MESH_NUMBER=1 /
&TRNZ IDERIV=2,CC=0.,PC=0.0,MESH_NUMBER=2 /
&TRNZ IDERIV=2,CC=0.,PC=0.0,MESH_NUMBER=3 /
&TRNZ IDERIV=2,CC=0.,PC=0.0,MESH_NUMBER=4 /
&TRNZ IDERIV=2,CC=0.,PC=0.0,MESH_NUMBER=5 /
&TRNZ IDERIV=2,CC=0.,PC=0.0,MESH_NUMBER=6 /
&TRNZ IDERIV=2,CC=0.,PC=0.0,MESH_NUMBER=7 /
&TRNZ IDERIV=2,CC=0.,PC=0.0,MESH_NUMBER=8 /
&TRNZ IDERIV=2,CC=0.,PC=0.0,MESH_NUMBER=9 /
&TRNZ IDERIV=2,CC=0.,PC=0.0,MESH_NUMBER=10 /
&TRNZ IDERIV=2,CC=0.,PC=0.0,MESH_NUMBER=11 /
&TRNZ IDERIV=2,CC=0.,PC=0.0,MESH_NUMBER=12 /
&TRNZ IDERIV=2,CC=0.,PC=0.0,MESH_NUMBER=13 /
&TRNZ IDERIV=2,CC=0.,PC=0.0,MESH_NUMBER=14 /
&TRNZ IDERIV=2,CC=0.,PC=0.0,MESH_NUMBER=15 /
&TRNZ IDERIV=2,CC=0.,PC=0.0,MESH_NUMBER=16 /
&TRNZ IDERIV=2,CC=0.,PC=0.0,MESH_NUMBER=17 /
&TRNZ IDERIV=2,CC=0.,PC=0.0,MESH_NUMBER=18 /
&TRNZ IDERIV=2,CC=0.,PC=0.0,MESH_NUMBER=19 /
&TRNZ IDERIV=2,CC=0.,PC=0.0,MESH_NUMBER=20 /
&TRNZ IDERIV=2,CC=0.,PC=0.0,MESH_NUMBER=21 /
&TRNZ IDERIV=2,CC=0.,PC=0.0,MESH_NUMBER=22 /
&TRNZ IDERIV=2,CC=0.,PC=0.0,MESH_NUMBER=23 /
&TRNZ IDERIV=2,CC=0.,PC=0.0,MESH_NUMBER=24 /
&TRNZ IDERIV=2,CC=0.,PC=0.0,MESH_NUMBER=25 /
&TRNZ IDERIV=2,CC=0.,PC=0.0,MESH_NUMBER=26 /
&TRNZ IDERIV=2,CC=0.,PC=0.0,MESH_NUMBER=27 /
&TRNZ IDERIV=2,CC=0.,PC=0.0,MESH_NUMBER=28 /
&TRNZ IDERIV=2,CC=0.,PC=0.0,MESH_NUMBER=29 /

- Account for water vapor from drying vegetation
&SPEC ID='WATER VAPOR' /

&TIME TWFIN=2800. /

&MISC RADIATION=.TRUE.,BAROCLINIC=.TRUE.,TERRAIN_CASE=.FALSE.,WIND_ONLY=.FALSE. /

- Specify parameters for combustion of fuel gases from pyrolysis of the solid fuel(s)
&REAC ID='WOOD'
      FYI='Ritchie, et al., 5th IAFSS, C_3.4 H_6.2 O_2.5'
      SOOT_YIELD = 0.02
      O          = 2.5
      C          = 3.4
      H          = 6.2
      HEAT_OF_COMBUSTION = 17700 /
 
- Surface fuel based on field measurements on site. Assumes a homogeneous surface fuel layer across the stand. 
&SURF ID = 'GROUND VEG1'
      VEGETATION = .TRUE.
      VEGETATION_INITIAL_TEMP = 20
      VEGETATION_CDRAG    = 0.05
      VEGETATION_MOISTURE = 0.05
      VEGETATION_SVRATIO  = 5710
      VEGETATION_CHAR_FRACTION  = 0.265
      VEGETATION_LOAD     = 0.23
      VEGETATION_HEIGHT   = 0.03
      VEGETATION_ELEMENT_DENSITY= 510
      EMISSIVITY = 0.99 
      VEGETATION_ARRHENIUS_DEGRAD=.FALSE.
      FIRELINE_MLR_MAX = 0.35 
      RGB        = 122,117,48 /
&VENT XB=1,680,0,400,0,0,SURF_ID='GROUND VEG1' /
&VENT XB=683,996,0,100,0,0,SURF_ID='GROUND VEG1' /
&VENT XB=683,996,300,400,0,0,SURF_ID='GROUND VEG1' /
&VENT XB=683,700,100,300,0,0,SURF_ID='GROUND VEG1' /
&VENT XB=900,996,100,300,0,0,SURF_ID='GROUND VEG1' /

&SURF ID = 'GROUND VEG2'
      VEGETATION = .TRUE.
      VEGETATION_INITIAL_TEMP = 20
      VEGETATION_CDRAG    = 0.05
      VEGETATION_MOISTURE = 0.05
      VEGETATION_SVRATIO  = 5710
      VEGETATION_CHAR_FRACTION  = 0.265
      VEGETATION_LOAD     = 0.23
      VEGETATION_HEIGHT   = 0.03
      VEGETATION_ELEMENT_DENSITY= 510
      EMISSIVITY = 0.99 
      VEGETATION_ARRHENIUS_DEGRAD=.FALSE.
      FIRELINE_MLR_MAX = 0.35 
      RGB        = 79,120,48 /
&VENT XB=700,900,100,300,0,0,SURF_ID='GROUND VEG2' /


- Crown fuels are based on stem mapped data, field measured tree properties and published values for each species.

- Ponderosa pine elements
&PART ID='PIPO',TREE=.TRUE.,QUANTITIES='VEG_TEMPERATURE',
      VEG_INITIAL_TEMPERATURE=20.,
      VEG_SV=4000.,VEG_MOISTURE=1.0,VEG_CHAR_FRACTION=0.25,
      VEG_DRAG_CONSTANT=0.125,VEG_DENSITY=520.,VEG_BULK_DENSITY=1.2,
      VEG_BURNING_RATE_MAX=0.4,VEG_DEHYDRATION_RATE_MAX=0.4,
      VEG_REMOVE_CHARRED=.TRUE. /


- Pinyon pine elements
&PART ID='PIED',TREE=.TRUE.,QUANTITIES='VEG_TEMPERATURE',
      VEG_INITIAL_TEMPERATURE=20.,
      VEG_SV=4000.,VEG_MOISTURE=1.0,VEG_CHAR_FRACTION=0.25,
      VEG_DRAG_CONSTANT=0.125,VEG_DENSITY=520.,VEG_BULK_DENSITY=1.2,
      VEG_BURNING_RATE_MAX=0.4,VEG_DEHYDRATION_RATE_MAX=0.4,
      VEG_REMOVE_CHARRED=.TRUE. /
 
-Juniper Elements
&PART ID='JUSC',TREE=.TRUE.,QUANTITIES='VEG_TEMPERATURE',
      VEG_INITIAL_TEMPERATURE=20.,
      VEG_SV=4000.,VEG_MOISTURE=1.0,VEG_CHAR_FRACTION=0.25,
      VEG_DRAG_CONSTANT=0.125,VEG_DENSITY=520.,VEG_BULK_DENSITY=1.2,
      VEG_BURNING_RATE_MAX=0.4,VEG_DEHYDRATION_RATE_MAX=0.4,
      VEG_REMOVE_CHARRED=.TRUE. /

- Tree stem elements
&PART ID='TRUNK1',TREE=.TRUE.,QUANTITIES='VEG_TEMPERATURE',
      VEG_SV=3.,VEG_MOISTURE=1.0,
      VEG_DRAG_CONSTANT=0.125,VEG_DENSITY=520.,
      VEG_BULK_DENSITY=520 /

&TREE XYZ=700.4,113.3,0,PART_ID="PIPO",FUEL_GEOM="CONE",CROWN_WIDTH=7.9 ,CROWN_BASE_HEIGHT=7,TREE_HEIGHT=23.2,OUTPUT_TREE=.TRUE.,LABEL="TREE1"/
&TREE XYZ=732.3,113.6,0,PART_ID="PIPO",FUEL_GEOM="CONE",CROWN_WIDTH=2 ,CROWN_BASE_HEIGHT=0.2,TREE_HEIGHT=3,OUTPUT_TREE=.TRUE.,LABEL="TREE2"/
&TREE XYZ=732.8,112.8,0,PART_ID="JUSC",FUEL_GEOM="CONE",CROWN_WIDTH=9.1 ,CROWN_BASE_HEIGHT=6.8,TREE_HEIGHT=21,OUTPUT_TREE=.TRUE.,LABEL="TREE3"/
&TREE XYZ=732.4,113.6,0,PART_ID="JUSC",FUEL_GEOM="CONE",CROWN_WIDTH=1.8 ,CROWN_BASE_HEIGHT=0.2,TREE_HEIGHT=3,OUTPUT_TREE=.TRUE.,LABEL="TREE4"/
&TREE XYZ=748,122.8,0,PART_ID="PIPO",FUEL_GEOM="CONE",CROWN_WIDTH=2.7 ,CROWN_BASE_HEIGHT=5.6,TREE_HEIGHT=13.5,OUTPUT_TREE=.TRUE.,LABEL="TREE5"/
&TREE XYZ=749,119.9,0,PART_ID="PIPO",FUEL_GEOM="CONE",CROWN_WIDTH=3.2 ,CROWN_BASE_HEIGHT=7.1,TREE_HEIGHT=13.9,OUTPUT_TREE=.TRUE.,LABEL="TREE6"/
&TREE XYZ=754.6,115.2,0,PART_ID="PIPO",FUEL_GEOM="CONE",CROWN_WIDTH=3.2 ,CROWN_BASE_HEIGHT=8.2,TREE_HEIGHT=15.3,OUTPUT_TREE=.TRUE.,LABEL="TREE7"/
&TREE XYZ=754.3,111.8,0,PART_ID="PIPO",FUEL_GEOM="CONE",CROWN_WIDTH=3.5 ,CROWN_BASE_HEIGHT=9.9,TREE_HEIGHT=16.9,OUTPUT_TREE=.TRUE.,LABEL="TREE8"/
&TREE XYZ=763.1,125.1,0,PART_ID="PIPO",FUEL_GEOM="CONE",CROWN_WIDTH=10.6 ,CROWN_BASE_HEIGHT=5.1,TREE_HEIGHT=20.7,OUTPUT_TREE=.TRUE.,LABEL="TREE9"/
&TREE XYZ=827.2,108.1,0,PART_ID="PIPO",FUEL_GEOM="CONE",CROWN_WIDTH=2.7 ,CROWN_BASE_HEIGHT=6.2,TREE_HEIGHT=15.7,OUTPUT_TREE=.TRUE.,LABEL="TREE10"/
&TREE XYZ=831.2,109.5,0,PART_ID="PIPO",FUEL_GEOM="CONE",CROWN_WIDTH=1.1 ,CROWN_BASE_HEIGHT=8,TREE_HEIGHT=15.8,OUTPUT_TREE=.TRUE.,LABEL="TREE11"/
&TREE XYZ=835.1,113.6,0,PART_ID="PIPO",FUEL_GEOM="CONE",CROWN_WIDTH=5.3 ,CROWN_BASE_HEIGHT=8.3,TREE_HEIGHT=15.7,OUTPUT_TREE=.TRUE.,LABEL="TREE12"/
&TREE XYZ=836.8,109.2,0,PART_ID="PIPO",FUEL_GEOM="CONE",CROWN_WIDTH=7.9 ,CROWN_BASE_HEIGHT=6.9,TREE_HEIGHT=16.2,OUTPUT_TREE=.TRUE.,LABEL="TREE13"/
&TREE XYZ=860.8,124.1,0,PART_ID="PIPO",FUEL_GEOM="CONE",CROWN_WIDTH=9.3 ,CROWN_BASE_HEIGHT=7,TREE_HEIGHT=23,OUTPUT_TREE=.TRUE.,LABEL="TREE14"/
&TREE XYZ=875.2,111.2,0,PART_ID="PIPO",FUEL_GEOM="CONE",CROWN_WIDTH=7.3 ,CROWN_BASE_HEIGHT=8.2,TREE_HEIGHT=18.9,OUTPUT_TREE=.TRUE.,LABEL="TREE15"/
&TREE XYZ=877.6,110.5,0,PART_ID="PIPO",FUEL_GEOM="CONE",CROWN_WIDTH=5.2 ,CROWN_BASE_HEIGHT=7,TREE_HEIGHT=18.2,OUTPUT_TREE=.TRUE.,LABEL="TREE16"/
&TREE XYZ=888.5,122.7,0,PART_ID="PIPO",FUEL_GEOM="CONE",CROWN_WIDTH=6.5 ,CROWN_BASE_HEIGHT=4.3,TREE_HEIGHT=19.5,OUTPUT_TREE=.TRUE.,LABEL="TREE17"/
&TREE XYZ=896.8,125.8,0,PART_ID="PIPO",FUEL_GEOM="CONE",CROWN_WIDTH=6.5 ,CROWN_BASE_HEIGHT=6.1,TREE_HEIGHT=24,OUTPUT_TREE=.TRUE.,LABEL="TREE18"/
&TREE XYZ=897.5,151.3,0,PART_ID="PIPO",FUEL_GEOM="CONE",CROWN_WIDTH=5.3 ,CROWN_BASE_HEIGHT=2.3,TREE_HEIGHT=14.8,OUTPUT_TREE=.TRUE.,LABEL="TREE19"/
&TREE XYZ=889.2,148.1,0,PART_ID="PIPO",FUEL_GEOM="CONE",CROWN_WIDTH=5.6 ,CROWN_BASE_HEIGHT=3,TREE_HEIGHT=11.9,OUTPUT_TREE=.TRUE.,LABEL="TREE20"/
&TREE XYZ=884.8,148.9,0,PART_ID="PIPO",FUEL_GEOM="CONE",CROWN_WIDTH=2.4 ,CROWN_BASE_HEIGHT=2.7,TREE_HEIGHT=11.9,OUTPUT_TREE=.TRUE.,LABEL="TREE21"/
&TREE XYZ=884,145.4,0,PART_ID="PIPO",FUEL_GEOM="CONE",CROWN_WIDTH=3.6 ,CROWN_BASE_HEIGHT=3.3,TREE_HEIGHT=14.7,OUTPUT_TREE=.TRUE.,LABEL="TREE22"/
&TREE XYZ=881.3,147.4,0,PART_ID="PIPO",FUEL_GEOM="CONE",CROWN_WIDTH=2.6 ,CROWN_BASE_HEIGHT=4.4,TREE_HEIGHT=13.3,OUTPUT_TREE=.TRUE.,LABEL="TREE23"/
&TREE XYZ=877,149.6,0,PART_ID="PIPO",FUEL_GEOM="CONE",CROWN_WIDTH=1.7 ,CROWN_BASE_HEIGHT=8.5,TREE_HEIGHT=14.4,OUTPUT_TREE=.TRUE.,LABEL="TREE24"/
&TREE XYZ=874.3,149.5,0,PART_ID="PIPO",FUEL_GEOM="CONE",CROWN_WIDTH=4.2 ,CROWN_BASE_HEIGHT=5.7,TREE_HEIGHT=13.9,OUTPUT_TREE=.TRUE.,LABEL="TREE25"/
&TREE XYZ=835.3,148.2,0,PART_ID="PIPO",FUEL_GEOM="CONE",CROWN_WIDTH=4 ,CROWN_BASE_HEIGHT=4.5,TREE_HEIGHT=11.1,OUTPUT_TREE=.TRUE.,LABEL="TREE26"/
&TREE XYZ=845,143.5,0,PART_ID="PIPO",FUEL_GEOM="CONE",CROWN_WIDTH=2.3 ,CROWN_BASE_HEIGHT=5,TREE_HEIGHT=12.3,OUTPUT_TREE=.TRUE.,LABEL="TREE27"/
&TREE XYZ=849,141.2,0,PART_ID="PIPO",FUEL_GEOM="CONE",CROWN_WIDTH=3.8 ,CROWN_BASE_HEIGHT=3.3,TREE_HEIGHT=13.3,OUTPUT_TREE=.TRUE.,LABEL="TREE28"/
&TREE XYZ=843.9,132.2,0,PART_ID="PIPO",FUEL_GEOM="CONE",CROWN_WIDTH=4.3 ,CROWN_BASE_HEIGHT=3.3,TREE_HEIGHT=13.5,OUTPUT_TREE=.TRUE.,LABEL="TREE29"/
&TREE XYZ=841.8,140.6,0,PART_ID="PIPO",FUEL_GEOM="CONE",CROWN_WIDTH=2.5 ,CROWN_BASE_HEIGHT=4.6,TREE_HEIGHT=13.7,OUTPUT_TREE=.TRUE.,LABEL="TREE30"/
&TREE XYZ=839.9,138.2,0,PART_ID="PIPO",FUEL_GEOM="CONE",CROWN_WIDTH=2.9 ,CROWN_BASE_HEIGHT=2.9,TREE_HEIGHT=13.4,OUTPUT_TREE=.TRUE.,LABEL="TREE31"/
&TREE XYZ=836.8,140.8,0,PART_ID="PIPO",FUEL_GEOM="CONE",CROWN_WIDTH=2.8 ,CROWN_BASE_HEIGHT=6.4,TREE_HEIGHT=14,OUTPUT_TREE=.TRUE.,LABEL="TREE32"/
&TREE XYZ=833.3,134.7,0,PART_ID="PIPO",FUEL_GEOM="CONE",CROWN_WIDTH=2.5 ,CROWN_BASE_HEIGHT=8.4,TREE_HEIGHT=17.4,OUTPUT_TREE=.TRUE.,LABEL="TREE33"/
&TREE XYZ=816.7,139.7,0,PART_ID="PIPO",FUEL_GEOM="CONE",CROWN_WIDTH=3.5 ,CROWN_BASE_HEIGHT=6.5,TREE_HEIGHT=14.5,OUTPUT_TREE=.TRUE.,LABEL="TREE34"/
&TREE XYZ=821.6,143.4,0,PART_ID="PIPO",FUEL_GEOM="CONE",CROWN_WIDTH=2.3 ,CROWN_BASE_HEIGHT=6.4,TREE_HEIGHT=10.7,OUTPUT_TREE=.TRUE.,LABEL="TREE35"/
&TREE XYZ=816.2,144.2,0,PART_ID="PIPO",FUEL_GEOM="CONE",CROWN_WIDTH=2.8 ,CROWN_BASE_HEIGHT=6.4,TREE_HEIGHT=12.5,OUTPUT_TREE=.TRUE.,LABEL="TREE36"/
&TREE XYZ=818.3,147.8,0,PART_ID="PIPO",FUEL_GEOM="CONE",CROWN_WIDTH=2.8 ,CROWN_BASE_HEIGHT=4.5,TREE_HEIGHT=9.9,OUTPUT_TREE=.TRUE.,LABEL="TREE37"/
&TREE XYZ=794.5,146.8,0,PART_ID="PIPO",FUEL_GEOM="CONE",CROWN_WIDTH=3.5 ,CROWN_BASE_HEIGHT=7.1,TREE_HEIGHT=14.7,OUTPUT_TREE=.TRUE.,LABEL="TREE38"/
&TREE XYZ=781.5,136.6,0,PART_ID="PIPO",FUEL_GEOM="CONE",CROWN_WIDTH=4.1 ,CROWN_BASE_HEIGHT=5.7,TREE_HEIGHT=14.7,OUTPUT_TREE=.TRUE.,LABEL="TREE39"/
&TREE XYZ=778.5,149.1,0,PART_ID="PIPO",FUEL_GEOM="CONE",CROWN_WIDTH=3 ,CROWN_BASE_HEIGHT=7.7,TREE_HEIGHT=13.3,OUTPUT_TREE=.TRUE.,LABEL="TREE40"/
&TREE XYZ=775,146.5,0,PART_ID="PIPO",FUEL_GEOM="CONE",CROWN_WIDTH=3.1 ,CROWN_BASE_HEIGHT=6.3,TREE_HEIGHT=14.4,OUTPUT_TREE=.TRUE.,LABEL="TREE41"/
&TREE XYZ=775.7,144.8,0,PART_ID="PIPO",FUEL_GEOM="CONE",CROWN_WIDTH=4.1 ,CROWN_BASE_HEIGHT=6.2,TREE_HEIGHT=14,OUTPUT_TREE=.TRUE.,LABEL="TREE42"/
&TREE XYZ=775.7,138.9,0,PART_ID="PIPO",FUEL_GEOM="CONE",CROWN_WIDTH=3.7 ,CROWN_BASE_HEIGHT=6.9,TREE_HEIGHT=15.1,OUTPUT_TREE=.TRUE.,LABEL="TREE43"/
&TREE XYZ=769.2,138.9,0,PART_ID="PIPO",FUEL_GEOM="CONE",CROWN_WIDTH=4 ,CROWN_BASE_HEIGHT=7.2,TREE_HEIGHT=14.8,OUTPUT_TREE=.TRUE.,LABEL="TREE44"/
&TREE XYZ=769.9,140.1,0,PART_ID="PIPO",FUEL_GEOM="CONE",CROWN_WIDTH=4.3 ,CROWN_BASE_HEIGHT=8.2,TREE_HEIGHT=14.9,OUTPUT_TREE=.TRUE.,LABEL="TREE45"/
&TREE XYZ=771.2,145.7,0,PART_ID="PIPO",FUEL_GEOM="CONE",CROWN_WIDTH=3.7 ,CROWN_BASE_HEIGHT=6.7,TREE_HEIGHT=16.1,OUTPUT_TREE=.TRUE.,LABEL="TREE46"/
&TREE XYZ=716.6,141.4,0,PART_ID="PIPO",FUEL_GEOM="CONE",CROWN_WIDTH=10.1 ,CROWN_BASE_HEIGHT=6,TREE_HEIGHT=20.3,OUTPUT_TREE=.TRUE.,LABEL="TREE47"/
&TREE XYZ=717.1,163.6,0,PART_ID="PIPO",FUEL_GEOM="CONE",CROWN_WIDTH=2.4 ,CROWN_BASE_HEIGHT=5,TREE_HEIGHT=13,OUTPUT_TREE=.TRUE.,LABEL="TREE48"/
&TREE XYZ=720,169,0,PART_ID="PIPO",FUEL_GEOM="CONE",CROWN_WIDTH=3.4 ,CROWN_BASE_HEIGHT=7.3,TREE_HEIGHT=14.5,OUTPUT_TREE=.TRUE.,LABEL="TREE49"/
&TREE XYZ=714.3,165.1,0,PART_ID="PIPO",FUEL_GEOM="CONE",CROWN_WIDTH=3.5 ,CROWN_BASE_HEIGHT=4.4,TREE_HEIGHT=14.5,OUTPUT_TREE=.TRUE.,LABEL="TREE50"/
&TREE XYZ=713.1,166.1,0,PART_ID="PIPO",FUEL_GEOM="CONE",CROWN_WIDTH=5.1 ,CROWN_BASE_HEIGHT=5.9,TREE_HEIGHT=16.9,OUTPUT_TREE=.TRUE.,LABEL="TREE51"/
&TREE XYZ=740.4,150.6,0,PART_ID="PIPO",FUEL_GEOM="CONE",CROWN_WIDTH=4.6 ,CROWN_BASE_HEIGHT=6,TREE_HEIGHT=17.1,OUTPUT_TREE=.TRUE.,LABEL="TREE52"/
&TREE XYZ=741.1,154.9,0,PART_ID="PIPO",FUEL_GEOM="CONE",CROWN_WIDTH=3.2 ,CROWN_BASE_HEIGHT=7,TREE_HEIGHT=13.7,OUTPUT_TREE=.TRUE.,LABEL="TREE53"/
&TREE XYZ=744.5,155.8,0,PART_ID="PIPO",FUEL_GEOM="CONE",CROWN_WIDTH=4.8 ,CROWN_BASE_HEIGHT=7.5,TREE_HEIGHT=15.7,OUTPUT_TREE=.TRUE.,LABEL="TREE54"/
&TREE XYZ=737.4,155.6,0,PART_ID="PIPO",FUEL_GEOM="CONE",CROWN_WIDTH=3.1 ,CROWN_BASE_HEIGHT=7.8,TREE_HEIGHT=15,OUTPUT_TREE=.TRUE.,LABEL="TREE55"/
&TREE XYZ=746.6,160.2,0,PART_ID="PIPO",FUEL_GEOM="CONE",CROWN_WIDTH=2.2 ,CROWN_BASE_HEIGHT=9,TREE_HEIGHT=13.9,OUTPUT_TREE=.TRUE.,LABEL="TREE56"/
&TREE XYZ=745.8,168.5,0,PART_ID="PIPO",FUEL_GEOM="CONE",CROWN_WIDTH=2.9 ,CROWN_BASE_HEIGHT=7.6,TREE_HEIGHT=14.1,OUTPUT_TREE=.TRUE.,LABEL="TREE57"/
&TREE XYZ=736.6,162.4,0,PART_ID="PIPO",FUEL_GEOM="CONE",CROWN_WIDTH=4.3 ,CROWN_BASE_HEIGHT=9.7,TREE_HEIGHT=15.5,OUTPUT_TREE=.TRUE.,LABEL="TREE58"/
&TREE XYZ=750,168,0,PART_ID="PIPO",FUEL_GEOM="CONE",CROWN_WIDTH=3 ,CROWN_BASE_HEIGHT=7.4,TREE_HEIGHT=14.6,OUTPUT_TREE=.TRUE.,LABEL="TREE59"/
&TREE XYZ=755.6,150.6,0,PART_ID="PIPO",FUEL_GEOM="CONE",CROWN_WIDTH=4.9 ,CROWN_BASE_HEIGHT=8.5,TREE_HEIGHT=17.1,OUTPUT_TREE=.TRUE.,LABEL="TREE60"/
&TREE XYZ=771,167.9,0,PART_ID="PIPO",FUEL_GEOM="CONE",CROWN_WIDTH=3.3 ,CROWN_BASE_HEIGHT=5.5,TREE_HEIGHT=14.2,OUTPUT_TREE=.TRUE.,LABEL="TREE61"/
&TREE XYZ=769.4,168.3,0,PART_ID="PIPO",FUEL_GEOM="CONE",CROWN_WIDTH=2.8 ,CROWN_BASE_HEIGHT=5.6,TREE_HEIGHT=14.9,OUTPUT_TREE=.TRUE.,LABEL="TREE62"/
&TREE XYZ=773.9,173.7,0,PART_ID="PIPO",FUEL_GEOM="CONE",CROWN_WIDTH=2.6 ,CROWN_BASE_HEIGHT=8.2,TREE_HEIGHT=14.4,OUTPUT_TREE=.TRUE.,LABEL="TREE63"/
&TREE XYZ=761.8,169.8,0,PART_ID="PIPO",FUEL_GEOM="CONE",CROWN_WIDTH=4.5 ,CROWN_BASE_HEIGHT=5.8,TREE_HEIGHT=15.6,OUTPUT_TREE=.TRUE.,LABEL="TREE64"/
&TREE XYZ=756.3,169.9,0,PART_ID="PIPO",FUEL_GEOM="CONE",CROWN_WIDTH=3.7 ,CROWN_BASE_HEIGHT=8.2,TREE_HEIGHT=16.9,OUTPUT_TREE=.TRUE.,LABEL="TREE65"/
&TREE XYZ=792.4,150.1,0,PART_ID="PIPO",FUEL_GEOM="CONE",CROWN_WIDTH=2.8 ,CROWN_BASE_HEIGHT=4.8,TREE_HEIGHT=11.8,OUTPUT_TREE=.TRUE.,LABEL="TREE66"/
&TREE XYZ=776.5,150,0,PART_ID="PIPO",FUEL_GEOM="CONE",CROWN_WIDTH=2.8 ,CROWN_BASE_HEIGHT=5.9,TREE_HEIGHT=13.1,OUTPUT_TREE=.TRUE.,LABEL="TREE67"/
&TREE XYZ=797.6,151.8,0,PART_ID="PIPO",FUEL_GEOM="CONE",CROWN_WIDTH=3.7 ,CROWN_BASE_HEIGHT=4.6,TREE_HEIGHT=11.8,OUTPUT_TREE=.TRUE.,LABEL="TREE68"/
&TREE XYZ=794.5,154,0,PART_ID="PIPO",FUEL_GEOM="CONE",CROWN_WIDTH=3 ,CROWN_BASE_HEIGHT=4.7,TREE_HEIGHT=13.9,OUTPUT_TREE=.TRUE.,LABEL="TREE69"/
&TREE XYZ=791.3,160.3,0,PART_ID="PIPO",FUEL_GEOM="CONE",CROWN_WIDTH=5.2 ,CROWN_BASE_HEIGHT=5.3,TREE_HEIGHT=13.2,OUTPUT_TREE=.TRUE.,LABEL="TREE70"/
&TREE XYZ=779.8,153.5,0,PART_ID="PIPO",FUEL_GEOM="CONE",CROWN_WIDTH=2.9 ,CROWN_BASE_HEIGHT=8.3,TREE_HEIGHT=14.3,OUTPUT_TREE=.TRUE.,LABEL="TREE71"/
&TREE XYZ=783,159,0,PART_ID="PIPO",FUEL_GEOM="CONE",CROWN_WIDTH=4.1 ,CROWN_BASE_HEIGHT=7.3,TREE_HEIGHT=13.7,OUTPUT_TREE=.TRUE.,LABEL="TREE72"/
&TREE XYZ=782.7,163,0,PART_ID="PIPO",FUEL_GEOM="CONE",CROWN_WIDTH=3.9 ,CROWN_BASE_HEIGHT=0.2,TREE_HEIGHT=13.4,OUTPUT_TREE=.TRUE.,LABEL="TREE73"/
&TREE XYZ=780.2,161.9,0,PART_ID="PIPO",FUEL_GEOM="CONE",CROWN_WIDTH=2.4 ,CROWN_BASE_HEIGHT=7.9,TREE_HEIGHT=15.5,OUTPUT_TREE=.TRUE.,LABEL="TREE74"/
&TREE XYZ=777.1,155.7,0,PART_ID="PIPO",FUEL_GEOM="CONE",CROWN_WIDTH=3.4 ,CROWN_BASE_HEIGHT=8.1,TREE_HEIGHT=15.1,OUTPUT_TREE=.TRUE.,LABEL="TREE75"/
&TREE XYZ=776.5,161.8,0,PART_ID="PIPO",FUEL_GEOM="CONE",CROWN_WIDTH=2.9 ,CROWN_BASE_HEIGHT=9.1,TREE_HEIGHT=14.1,OUTPUT_TREE=.TRUE.,LABEL="TREE76"/
&TREE XYZ=775,152.8,0,PART_ID="PIPO",FUEL_GEOM="CONE",CROWN_WIDTH=3.3 ,CROWN_BASE_HEIGHT=7.4,TREE_HEIGHT=14,OUTPUT_TREE=.TRUE.,LABEL="TREE77"/
&TREE XYZ=818.9,155.7,0,PART_ID="PIPO",FUEL_GEOM="CONE",CROWN_WIDTH=4.7 ,CROWN_BASE_HEIGHT=4.3,TREE_HEIGHT=14.6,OUTPUT_TREE=.TRUE.,LABEL="TREE78"/
&TREE XYZ=820.5,160.2,0,PART_ID="PIPO",FUEL_GEOM="CONE",CROWN_WIDTH=3.7 ,CROWN_BASE_HEIGHT=7.7,TREE_HEIGHT=11.4,OUTPUT_TREE=.TRUE.,LABEL="TREE79"/
&TREE XYZ=804.3,169.7,0,PART_ID="PIPO",FUEL_GEOM="CONE",CROWN_WIDTH=3 ,CROWN_BASE_HEIGHT=6.5,TREE_HEIGHT=12.9,OUTPUT_TREE=.TRUE.,LABEL="TREE80"/
&TREE XYZ=802.3,173.5,0,PART_ID="PIPO",FUEL_GEOM="CONE",CROWN_WIDTH=2.3 ,CROWN_BASE_HEIGHT=5.2,TREE_HEIGHT=10.8,OUTPUT_TREE=.TRUE.,LABEL="TREE81"/
&TREE XYZ=828.6,155,0,PART_ID="PIPO",FUEL_GEOM="CONE",CROWN_WIDTH=3.8 ,CROWN_BASE_HEIGHT=8.2,TREE_HEIGHT=12.1,OUTPUT_TREE=.TRUE.,LABEL="TREE82"/
&TREE XYZ=840.5,174.1,0,PART_ID="PIPO",FUEL_GEOM="CONE",CROWN_WIDTH=4.6 ,CROWN_BASE_HEIGHT=6.1,TREE_HEIGHT=17.5,OUTPUT_TREE=.TRUE.,LABEL="TREE83"/
&TREE XYZ=866.4,162,0,PART_ID="PIPO",FUEL_GEOM="CONE",CROWN_WIDTH=10.4 ,CROWN_BASE_HEIGHT=8,TREE_HEIGHT=21.6,OUTPUT_TREE=.TRUE.,LABEL="TREE84"/
&TREE XYZ=881.5,154.2,0,PART_ID="PIPO",FUEL_GEOM="CONE",CROWN_WIDTH=4.7 ,CROWN_BASE_HEIGHT=4.4,TREE_HEIGHT=12.1,OUTPUT_TREE=.TRUE.,LABEL="TREE85"/
&TREE XYZ=883.7,160.7,0,PART_ID="PIPO",FUEL_GEOM="CONE",CROWN_WIDTH=5.5 ,CROWN_BASE_HEIGHT=3.7,TREE_HEIGHT=14.9,OUTPUT_TREE=.TRUE.,LABEL="TREE86"/
&TREE XYZ=886.3,167.7,0,PART_ID="PIPO",FUEL_GEOM="CONE",CROWN_WIDTH=6.3 ,CROWN_BASE_HEIGHT=4,TREE_HEIGHT=15.2,OUTPUT_TREE=.TRUE.,LABEL="TREE87"/
&TREE XYZ=894.9,178.9,0,PART_ID="PIPO",FUEL_GEOM="CONE",CROWN_WIDTH=4.1 ,CROWN_BASE_HEIGHT=5,TREE_HEIGHT=13.4,OUTPUT_TREE=.TRUE.,LABEL="TREE88"/
&TREE XYZ=896.5,182.7,0,PART_ID="PIPO",FUEL_GEOM="CONE",CROWN_WIDTH=4.3 ,CROWN_BASE_HEIGHT=6.2,TREE_HEIGHT=15.3,OUTPUT_TREE=.TRUE.,LABEL="TREE89"/
&TREE XYZ=891.1,182.4,0,PART_ID="PIPO",FUEL_GEOM="CONE",CROWN_WIDTH=3 ,CROWN_BASE_HEIGHT=4.2,TREE_HEIGHT=12.5,OUTPUT_TREE=.TRUE.,LABEL="TREE90"/
&TREE XYZ=898.2,186.4,0,PART_ID="PIPO",FUEL_GEOM="CONE",CROWN_WIDTH=5.4 ,CROWN_BASE_HEIGHT=7.4,TREE_HEIGHT=16.9,OUTPUT_TREE=.TRUE.,LABEL="TREE91"/
&TREE XYZ=882.5,182.9,0,PART_ID="PIPO",FUEL_GEOM="CONE",CROWN_WIDTH=4.5 ,CROWN_BASE_HEIGHT=6.2,TREE_HEIGHT=15,OUTPUT_TREE=.TRUE.,LABEL="TREE92"/
&TREE XYZ=884,189.8,0,PART_ID="PIPO",FUEL_GEOM="CONE",CROWN_WIDTH=3.5 ,CROWN_BASE_HEIGHT=4.8,TREE_HEIGHT=14.1,OUTPUT_TREE=.TRUE.,LABEL="TREE93"/
&TREE XYZ=885.3,185.9,0,PART_ID="PIPO",FUEL_GEOM="CONE",CROWN_WIDTH=4.2 ,CROWN_BASE_HEIGHT=7.8,TREE_HEIGHT=15.5,OUTPUT_TREE=.TRUE.,LABEL="TREE94"/
&TREE XYZ=859.7,199.7,0,PART_ID="PIPO",FUEL_GEOM="CONE",CROWN_WIDTH=3.2 ,CROWN_BASE_HEIGHT=5.1,TREE_HEIGHT=14.4,OUTPUT_TREE=.TRUE.,LABEL="TREE95"/
&TREE XYZ=856.2,192.3,0,PART_ID="PIED",FUEL_GEOM="CONE",CROWN_WIDTH=1.2 ,CROWN_BASE_HEIGHT=0.1,TREE_HEIGHT=1.3,OUTPUT_TREE=.TRUE.,LABEL="TREE96"/
&TREE XYZ=841.2,178.3,0,PART_ID="PIPO",FUEL_GEOM="CONE",CROWN_WIDTH=4.7 ,CROWN_BASE_HEIGHT=6,TREE_HEIGHT=24.5,OUTPUT_TREE=.TRUE.,LABEL="TREE97"/
&TREE XYZ=842.7,179.6,0,PART_ID="PIPO",FUEL_GEOM="CONE",CROWN_WIDTH=4.4 ,CROWN_BASE_HEIGHT=6.3,TREE_HEIGHT=24.8,OUTPUT_TREE=.TRUE.,LABEL="TREE98"/
&TREE XYZ=819,176.7,0,PART_ID="PIPO",FUEL_GEOM="CONE",CROWN_WIDTH=8.4 ,CROWN_BASE_HEIGHT=3.2,TREE_HEIGHT=21.4,OUTPUT_TREE=.TRUE.,LABEL="TREE99"/
&TREE XYZ=813.4,194.4,0,PART_ID="PIPO",FUEL_GEOM="CONE",CROWN_WIDTH=6.5 ,CROWN_BASE_HEIGHT=4.4,TREE_HEIGHT=18.4,OUTPUT_TREE=.TRUE.,LABEL="TREE100"/
&TREE XYZ=816,199.2,0,PART_ID="PIPO",FUEL_GEOM="CONE",CROWN_WIDTH=4.4 ,CROWN_BASE_HEIGHT=5.9,TREE_HEIGHT=18.5,OUTPUT_TREE=.TRUE.,LABEL="TREE101"/
&TREE XYZ=805.2,197.3,0,PART_ID="PIPO",FUEL_GEOM="CONE",CROWN_WIDTH=3.9 ,CROWN_BASE_HEIGHT=2.4,TREE_HEIGHT=9.8,OUTPUT_TREE=.TRUE.,LABEL="TREE102"/
&TREE XYZ=801.2,182.7,0,PART_ID="PIPO",FUEL_GEOM="CONE",CROWN_WIDTH=6 ,CROWN_BASE_HEIGHT=3.3,TREE_HEIGHT=13.3,OUTPUT_TREE=.TRUE.,LABEL="TREE103"/
&TREE XYZ=796.9,178.9,0,PART_ID="PIPO",FUEL_GEOM="CONE",CROWN_WIDTH=9.9 ,CROWN_BASE_HEIGHT=4.8,TREE_HEIGHT=18.5,OUTPUT_TREE=.TRUE.,LABEL="TREE104"/
&TREE XYZ=789,185.9,0,PART_ID="PIPO",FUEL_GEOM="CONE",CROWN_WIDTH=4.1 ,CROWN_BASE_HEIGHT=3.8,TREE_HEIGHT=10.9,OUTPUT_TREE=.TRUE.,LABEL="TREE105"/
&TREE XYZ=775.6,196,0,PART_ID="PIPO",FUEL_GEOM="CONE",CROWN_WIDTH=3.2 ,CROWN_BASE_HEIGHT=2.2,TREE_HEIGHT=9.7,OUTPUT_TREE=.TRUE.,LABEL="TREE106"/
&TREE XYZ=770.8,175,0,PART_ID="PIPO",FUEL_GEOM="CONE",CROWN_WIDTH=2 ,CROWN_BASE_HEIGHT=7,TREE_HEIGHT=13.2,OUTPUT_TREE=.TRUE.,LABEL="TREE107"/
&TREE XYZ=765.3,175.5,0,PART_ID="PIPO",FUEL_GEOM="CONE",CROWN_WIDTH=3.1 ,CROWN_BASE_HEIGHT=7.6,TREE_HEIGHT=14.3,OUTPUT_TREE=.TRUE.,LABEL="TREE108"/
&TREE XYZ=772.4,175.4,0,PART_ID="PIPO",FUEL_GEOM="CONE",CROWN_WIDTH=3.3 ,CROWN_BASE_HEIGHT=6.8,TREE_HEIGHT=14.1,OUTPUT_TREE=.TRUE.,LABEL="TREE109"/
&TREE XYZ=735.7,176.7,0,PART_ID="PIPO",FUEL_GEOM="CONE",CROWN_WIDTH=2.6 ,CROWN_BASE_HEIGHT=5.4,TREE_HEIGHT=12.6,OUTPUT_TREE=.TRUE.,LABEL="TREE110"/
&TREE XYZ=739.9,178.7,0,PART_ID="PIPO",FUEL_GEOM="CONE",CROWN_WIDTH=4.1 ,CROWN_BASE_HEIGHT=7.3,TREE_HEIGHT=13.8,OUTPUT_TREE=.TRUE.,LABEL="TREE111"/
&TREE XYZ=749.1,180.3,0,PART_ID="PIPO",FUEL_GEOM="CONE",CROWN_WIDTH=3.7 ,CROWN_BASE_HEIGHT=7.9,TREE_HEIGHT=16.4,OUTPUT_TREE=.TRUE.,LABEL="TREE112"/
&TREE XYZ=743.3,184.6,0,PART_ID="PIPO",FUEL_GEOM="CONE",CROWN_WIDTH=2.6 ,CROWN_BASE_HEIGHT=6.7,TREE_HEIGHT=13.5,OUTPUT_TREE=.TRUE.,LABEL="TREE113"/
&TREE XYZ=744.4,189.5,0,PART_ID="PIPO",FUEL_GEOM="CONE",CROWN_WIDTH=3.3 ,CROWN_BASE_HEIGHT=7.1,TREE_HEIGHT=14,OUTPUT_TREE=.TRUE.,LABEL="TREE114"/
&TREE XYZ=737.6,191.6,0,PART_ID="PIPO",FUEL_GEOM="CONE",CROWN_WIDTH=3.2 ,CROWN_BASE_HEIGHT=7.8,TREE_HEIGHT=13.6,OUTPUT_TREE=.TRUE.,LABEL="TREE115"/
&TREE XYZ=733.7,193.5,0,PART_ID="PIPO",FUEL_GEOM="CONE",CROWN_WIDTH=4.4 ,CROWN_BASE_HEIGHT=4.2,TREE_HEIGHT=13.8,OUTPUT_TREE=.TRUE.,LABEL="TREE116"/
&TREE XYZ=729.6,187.3,0,PART_ID="PIPO",FUEL_GEOM="CONE",CROWN_WIDTH=2.9 ,CROWN_BASE_HEIGHT=7.8,TREE_HEIGHT=14,OUTPUT_TREE=.TRUE.,LABEL="TREE117"/
&TREE XYZ=729.7,197.9,0,PART_ID="PIPO",FUEL_GEOM="CONE",CROWN_WIDTH=4.6 ,CROWN_BASE_HEIGHT=9.9,TREE_HEIGHT=18.6,OUTPUT_TREE=.TRUE.,LABEL="TREE118"/
&TREE XYZ=738.4,197,0,PART_ID="PIPO",FUEL_GEOM="CONE",CROWN_WIDTH=2.2 ,CROWN_BASE_HEIGHT=7.4,TREE_HEIGHT=14,OUTPUT_TREE=.TRUE.,LABEL="TREE119"/
&TREE XYZ=744.5,193.2,0,PART_ID="PIPO",FUEL_GEOM="CONE",CROWN_WIDTH=2.6 ,CROWN_BASE_HEIGHT=8,TREE_HEIGHT=14.4,OUTPUT_TREE=.TRUE.,LABEL="TREE120"/
&TREE XYZ=749.4,195.1,0,PART_ID="PIPO",FUEL_GEOM="CONE",CROWN_WIDTH=3 ,CROWN_BASE_HEIGHT=6.5,TREE_HEIGHT=12.9,OUTPUT_TREE=.TRUE.,LABEL="TREE121"/
&TREE XYZ=750.8,192.2,0,PART_ID="PIPO",FUEL_GEOM="CONE",CROWN_WIDTH=3.5 ,CROWN_BASE_HEIGHT=8.6,TREE_HEIGHT=13.4,OUTPUT_TREE=.TRUE.,LABEL="TREE122"/
&TREE XYZ=731.8,179.1,0,PART_ID="PIPO",FUEL_GEOM="CONE",CROWN_WIDTH=3 ,CROWN_BASE_HEIGHT=6,TREE_HEIGHT=14.2,OUTPUT_TREE=.TRUE.,LABEL="TREE123"/
&TREE XYZ=713.6,175,0,PART_ID="PIPO",FUEL_GEOM="CONE",CROWN_WIDTH=5.4 ,CROWN_BASE_HEIGHT=6.9,TREE_HEIGHT=14.8,OUTPUT_TREE=.TRUE.,LABEL="TREE124"/
&TREE XYZ=717.9,176.9,0,PART_ID="PIPO",FUEL_GEOM="CONE",CROWN_WIDTH=4.4 ,CROWN_BASE_HEIGHT=7.2,TREE_HEIGHT=15,OUTPUT_TREE=.TRUE.,LABEL="TREE125"/
&TREE XYZ=710.3,177.6,0,PART_ID="PIPO",FUEL_GEOM="CONE",CROWN_WIDTH=3.6 ,CROWN_BASE_HEIGHT=3.9,TREE_HEIGHT=14,OUTPUT_TREE=.TRUE.,LABEL="TREE126"/
&TREE XYZ=719.3,181.7,0,PART_ID="JUSC",FUEL_GEOM="CONE",CROWN_WIDTH=3.6 ,CROWN_BASE_HEIGHT=0.1,TREE_HEIGHT=5,OUTPUT_TREE=.TRUE.,LABEL="TREE127"/
&TREE XYZ=719,182,0,PART_ID="JUSC",FUEL_GEOM="CONE",CROWN_WIDTH=3.9 ,CROWN_BASE_HEIGHT=0.1,TREE_HEIGHT=7.9,OUTPUT_TREE=.TRUE.,LABEL="TREE128"/
&TREE XYZ=709,180.7,0,PART_ID="PIPO",FUEL_GEOM="CONE",CROWN_WIDTH=3.7 ,CROWN_BASE_HEIGHT=8.4,TREE_HEIGHT=16,OUTPUT_TREE=.TRUE.,LABEL="TREE129"/
&TREE XYZ=703.1,193.3,0,PART_ID="PIPO",FUEL_GEOM="CONE",CROWN_WIDTH=2 ,CROWN_BASE_HEIGHT=3.2,TREE_HEIGHT=14.1,OUTPUT_TREE=.TRUE.,LABEL="TREE130"/
&TREE XYZ=719.1,181.9,0,PART_ID="JUSC",FUEL_GEOM="CONE",CROWN_WIDTH=3.3 ,CROWN_BASE_HEIGHT=0.1,TREE_HEIGHT=7.9,OUTPUT_TREE=.TRUE.,LABEL="TREE131"/
&TREE XYZ=719.3,181.7,0,PART_ID="JUSC",FUEL_GEOM="CONE",CROWN_WIDTH=1.8 ,CROWN_BASE_HEIGHT=0.5,TREE_HEIGHT=3,OUTPUT_TREE=.TRUE.,LABEL="TREE132"/
&TREE XYZ=728.7,203.9,0,PART_ID="PIPO",FUEL_GEOM="CONE",CROWN_WIDTH=4.8 ,CROWN_BASE_HEIGHT=3,TREE_HEIGHT=13.3,OUTPUT_TREE=.TRUE.,LABEL="TREE133"/
&TREE XYZ=727.6,215.3,0,PART_ID="PIPO",FUEL_GEOM="CONE",CROWN_WIDTH=4 ,CROWN_BASE_HEIGHT=4.4,TREE_HEIGHT=12.3,OUTPUT_TREE=.TRUE.,LABEL="TREE134"/
&TREE XYZ=728.1,219.7,0,PART_ID="PIPO",FUEL_GEOM="CONE",CROWN_WIDTH=4.7 ,CROWN_BASE_HEIGHT=5.6,TREE_HEIGHT=15.5,OUTPUT_TREE=.TRUE.,LABEL="TREE135"/
&TREE XYZ=726.1,219.2,0,PART_ID="PIPO",FUEL_GEOM="CONE",CROWN_WIDTH=2.7 ,CROWN_BASE_HEIGHT=5.3,TREE_HEIGHT=13.3,OUTPUT_TREE=.TRUE.,LABEL="TREE136"/
&TREE XYZ=727.2,223.5,0,PART_ID="PIPO",FUEL_GEOM="CONE",CROWN_WIDTH=3.7 ,CROWN_BASE_HEIGHT=8.1,TREE_HEIGHT=15.5,OUTPUT_TREE=.TRUE.,LABEL="TREE137"/
&TREE XYZ=754.4,201,0,PART_ID="PIPO",FUEL_GEOM="CONE",CROWN_WIDTH=3.5 ,CROWN_BASE_HEIGHT=3.3,TREE_HEIGHT=13.2,OUTPUT_TREE=.TRUE.,LABEL="TREE138"/
&TREE XYZ=764,209.9,0,PART_ID="PIPO",FUEL_GEOM="CONE",CROWN_WIDTH=1 ,CROWN_BASE_HEIGHT=0.6,TREE_HEIGHT=1.6,OUTPUT_TREE=.TRUE.,LABEL="TREE139"/
&TREE XYZ=766.8,213.4,0,PART_ID="PIPO",FUEL_GEOM="CONE",CROWN_WIDTH=4.4 ,CROWN_BASE_HEIGHT=3.2,TREE_HEIGHT=10.2,OUTPUT_TREE=.TRUE.,LABEL="TREE140"/
&TREE XYZ=767,215.6,0,PART_ID="PIPO",FUEL_GEOM="CONE",CROWN_WIDTH=4.7 ,CROWN_BASE_HEIGHT=1.6,TREE_HEIGHT=9.9,OUTPUT_TREE=.TRUE.,LABEL="TREE141"/
&TREE XYZ=752.7,217.8,0,PART_ID="PIPO",FUEL_GEOM="CONE",CROWN_WIDTH=3 ,CROWN_BASE_HEIGHT=5.3,TREE_HEIGHT=12.4,OUTPUT_TREE=.TRUE.,LABEL="TREE142"/
&TREE XYZ=766.6,212.4,0,PART_ID="JUSC",FUEL_GEOM="CONE",CROWN_WIDTH=0.9 ,CROWN_BASE_HEIGHT=0.3,TREE_HEIGHT=1.7,OUTPUT_TREE=.TRUE.,LABEL="TREE143"/
&TREE XYZ=766.9,212.4,0,PART_ID="JUSC",FUEL_GEOM="CONE",CROWN_WIDTH=1 ,CROWN_BASE_HEIGHT=0.3,TREE_HEIGHT=1.8,OUTPUT_TREE=.TRUE.,LABEL="TREE144"/